# generated using pymatgen
data_HgC2(NO)2
_symmetry_space_group_name_H-M   'P 1'
_cell_length_a   5.98750500
_cell_length_b   10.40646400
_cell_length_c   8.34657100
_cell_angle_alpha   90.00000000
_cell_angle_beta   90.00000000
_cell_angle_gamma   90.00000000
_symmetry_Int_Tables_number   1
_chemical_formula_structural   HgC2(NO)2
_chemical_formula_sum   'Hg4 C8 N8 O8'
_cell_volume   520.06444947
_cell_formula_units_Z   4
loop_
 _symmetry_equiv_pos_site_id
 _symmetry_equiv_pos_as_xyz
  1  'x, y, z'
loop_
 _atom_type_symbol
 _atom_type_oxidation_number
  Hg2+  2.0
  C4+  4.0
  N3-  -3.0
  O2-  -2.0
loop_
 _atom_site_type_symbol
 _atom_site_label
 _atom_site_symmetry_multiplicity
 _atom_site_fract_x
 _atom_site_fract_y
 _atom_site_fract_z
 _atom_site_occupancy
  Hg2+  Hg0  1  0.50000000  0.00000000  0.50000000  1
  Hg2+  Hg1  1  0.00000000  0.00000000  0.00000000  1
  Hg2+  Hg2  1  0.00000000  0.50000000  0.50000000  1
  Hg2+  Hg3  1  0.50000000  0.50000000  0.00000000  1
  C4+  C4  1  0.50000000  0.18132350  0.58674000  1
  C4+  C5  1  0.00000000  0.31867650  0.41326000  1
  C4+  C6  1  0.50000000  0.31867650  0.08674000  1
  C4+  C7  1  0.00000000  0.18132350  0.91326000  1
  C4+  C8  1  0.00000000  0.68132350  0.58674000  1
  C4+  C9  1  0.50000000  0.81867650  0.41326000  1
  C4+  C10  1  0.00000000  0.81867650  0.08674000  1
  C4+  C11  1  0.50000000  0.68132350  0.91326000  1
  N3-  N12  1  0.50000000  0.29095850  0.62064300  1
  N3-  N13  1  0.00000000  0.20904150  0.37935700  1
  N3-  N14  1  0.50000000  0.20904150  0.12064300  1
  N3-  N15  1  0.00000000  0.29095850  0.87935700  1
  N3-  N16  1  0.00000000  0.79095850  0.62064300  1
  N3-  N17  1  0.50000000  0.70904150  0.37935700  1
  N3-  N18  1  0.00000000  0.70904150  0.12064300  1
  N3-  N19  1  0.50000000  0.79095850  0.87935700  1
  O2-  O20  1  0.50000000  0.40572000  0.65600100  1
  O2-  O21  1  0.00000000  0.09428000  0.34399900  1
  O2-  O22  1  0.50000000  0.09428000  0.15600100  1
  O2-  O23  1  0.00000000  0.40572000  0.84399900  1
  O2-  O24  1  0.00000000  0.90572000  0.65600100  1
  O2-  O25  1  0.50000000  0.59428000  0.34399900  1
  O2-  O26  1  0.00000000  0.59428000  0.15600100  1
  O2-  O27  1  0.50000000  0.90572000  0.84399900  1
